*SPEF "ieee 1481-1999"
*DESIGN "alu"
*DATE "11:11:11 Fri 11 11, 1111"
*VENDOR "OpenRCX"
*PROGRAM "Parallel Extraction"
*VERSION "1.0"
*DESIGN_FLOW "NAME_SCOPE LOCAL" "PIN_CAP NONE"
*DIVIDER /
*DELIMITER :
*BUS_DELIMITER []
*T_UNIT 1 NS
*C_UNIT 1 PF
*R_UNIT 1 OHM
*L_UNIT 1 HENRY

*NAME_MAP
*1 A[0]
*2 A[1]
*3 A[2]
*4 A[3]
*5 A[4]
*6 A[5]
*7 A[6]
*8 A[7]
*9 B[0]
*10 B[1]
*11 B[2]
*12 B[3]
*13 B[4]
*14 B[5]
*15 B[6]
*16 B[7]
*17 CarryOut
*18 Result[0]
*19 Result[1]
*20 Result[2]
*21 Result[3]
*22 Result[4]
*23 Result[5]
*24 Result[6]
*25 Result[7]
*26 Sel[0]
*27 Sel[1]
*28 Sel[2]
*29 Sel[3]
*32 Zero
*33 _000_
*34 _001_
*35 _002_
*36 _003_
*37 _004_
*38 _005_
*39 _006_
*40 _007_
*41 _008_
*42 _009_
*43 _010_
*44 _011_
*45 _012_
*46 _013_
*47 _014_
*48 _015_
*49 _016_
*50 _017_
*51 _018_
*52 _019_
*53 _020_
*54 _021_
*55 _022_
*56 _023_
*57 _024_
*58 _025_
*59 _026_
*60 _027_
*61 _028_
*62 _029_
*63 _030_
*64 _031_
*65 _032_
*66 _033_
*67 _034_
*68 _035_
*69 _036_
*70 _037_
*71 _038_
*72 _039_
*73 _040_
*74 _041_
*75 _042_
*76 _043_
*77 _044_
*78 _045_
*79 _046_
*80 _047_
*81 _048_
*82 _049_
*83 _050_
*84 _051_
*85 _052_
*86 _053_
*87 _054_
*88 _055_
*89 _056_
*90 _057_
*91 _058_
*92 _059_
*93 _060_
*94 _061_
*95 _062_
*96 _063_
*97 _064_
*98 _065_
*99 _066_
*100 _067_
*101 _068_
*102 _069_
*103 _070_
*104 _071_
*105 _072_
*106 _073_
*107 _074_
*108 _075_
*109 _076_
*110 _077_
*111 _078_
*112 _079_
*113 _080_
*114 _081_
*115 _082_
*116 _083_
*117 _084_
*118 _085_
*119 _086_
*120 _087_
*121 _088_
*122 _089_
*123 _090_
*124 _091_
*125 _092_
*126 _093_
*127 _094_
*128 _095_
*129 _096_
*130 _097_
*131 _098_
*132 _099_
*133 _100_
*134 _101_
*135 _102_
*136 _103_
*137 _104_
*138 _105_
*139 _106_
*140 _107_
*141 _108_
*142 _109_
*143 _110_
*144 _111_
*145 _112_
*146 _113_
*147 _114_
*148 _115_
*149 _116_
*150 _117_
*151 _118_
*152 _119_
*153 _120_
*154 _121_
*155 _122_
*156 _123_
*157 _124_
*158 _125_
*159 _126_
*160 _127_
*161 _128_
*162 _129_
*163 _130_
*164 _131_
*165 _132_
*166 _133_
*167 _134_
*168 _135_
*169 _136_
*170 _137_
*171 _138_
*172 _139_
*173 _140_
*174 _141_
*175 _142_
*176 _143_
*177 _144_
*178 _145_
*179 _146_
*180 _147_
*181 _148_
*182 _149_
*183 _150_
*184 _151_
*185 _152_
*186 _153_
*187 _154_
*188 _155_
*189 _156_
*190 _157_
*191 _158_
*192 _159_
*193 _160_
*194 _161_
*195 _162_
*196 _163_
*197 _164_
*198 _165_
*199 _166_
*200 _167_
*201 _168_
*202 _169_
*203 _170_
*204 _171_
*205 _172_
*206 _173_
*207 _174_
*208 _175_
*209 net1
*210 net10
*211 net11
*212 net12
*213 net13
*214 net14
*215 net15
*216 net16
*217 net17
*218 net18
*219 net19
*220 net2
*221 net20
*222 net21
*223 net22
*224 net23
*225 net24
*226 net25
*227 net26
*228 net27
*229 net28
*230 net29
*231 net3
*232 net30
*233 net31
*234 net32
*235 net33
*236 net4
*237 net5
*238 net6
*239 net7
*240 net8
*241 net9
*242 FILLER_0_0_104
*243 FILLER_0_0_113
*244 FILLER_0_0_125
*245 FILLER_0_0_137
*246 FILLER_0_0_141
*247 FILLER_0_0_153
*248 FILLER_0_0_161
*249 FILLER_0_0_167
*250 FILLER_0_0_169
*251 FILLER_0_0_181
*252 FILLER_0_0_193
*253 FILLER_0_0_197
*254 FILLER_0_0_209
*255 FILLER_0_0_21
*256 FILLER_0_0_217
*257 FILLER_0_0_223
*258 FILLER_0_0_225
*259 FILLER_0_0_237
*260 FILLER_0_0_249
*261 FILLER_0_0_253
*262 FILLER_0_0_261
*263 FILLER_0_0_27
*264 FILLER_0_0_272
*265 FILLER_0_0_281
*266 FILLER_0_0_29
*267 FILLER_0_0_293
*268 FILLER_0_0_305
*269 FILLER_0_0_309
*270 FILLER_0_0_321
*271 FILLER_0_0_328
*272 FILLER_0_0_337
*273 FILLER_0_0_349
*274 FILLER_0_0_361
*275 FILLER_0_0_365
*276 FILLER_0_0_377
*277 FILLER_0_0_387
*278 FILLER_0_0_391
*279 FILLER_0_0_393
*280 FILLER_0_0_41
*281 FILLER_0_0_49
*282 FILLER_0_0_55
*283 FILLER_0_0_57
*284 FILLER_0_0_69
*285 FILLER_0_0_81
*286 FILLER_0_0_85
*287 FILLER_0_0_9
*288 FILLER_0_0_97
*289 FILLER_0_10_109
*290 FILLER_0_10_121
*291 FILLER_0_10_133
*292 FILLER_0_10_139
*293 FILLER_0_10_141
*294 FILLER_0_10_15
*295 FILLER_0_10_153
*296 FILLER_0_10_165
*297 FILLER_0_10_177
*298 FILLER_0_10_189
*299 FILLER_0_10_195
*300 FILLER_0_10_197
*301 FILLER_0_10_209
*302 FILLER_0_10_221
*303 FILLER_0_10_233
*304 FILLER_0_10_245
*305 FILLER_0_10_251
*306 FILLER_0_10_253
*307 FILLER_0_10_265
*308 FILLER_0_10_27
*309 FILLER_0_10_277
*310 FILLER_0_10_289
*311 FILLER_0_10_29
*312 FILLER_0_10_3
*313 FILLER_0_10_301
*314 FILLER_0_10_307
*315 FILLER_0_10_309
*316 FILLER_0_10_321
*317 FILLER_0_10_333
*318 FILLER_0_10_345
*319 FILLER_0_10_357
*320 FILLER_0_10_363
*321 FILLER_0_10_365
*322 FILLER_0_10_377
*323 FILLER_0_10_389
*324 FILLER_0_10_401
*325 FILLER_0_10_41
*326 FILLER_0_10_53
*327 FILLER_0_10_65
*328 FILLER_0_10_77
*329 FILLER_0_10_83
*330 FILLER_0_10_85
*331 FILLER_0_10_97
*332 FILLER_0_11_105
*333 FILLER_0_11_111
*334 FILLER_0_11_113
*335 FILLER_0_11_125
*336 FILLER_0_11_137
*337 FILLER_0_11_149
*338 FILLER_0_11_15
*339 FILLER_0_11_161
*340 FILLER_0_11_167
*341 FILLER_0_11_169
*342 FILLER_0_11_181
*343 FILLER_0_11_193
*344 FILLER_0_11_205
*345 FILLER_0_11_217
*346 FILLER_0_11_223
*347 FILLER_0_11_225
*348 FILLER_0_11_237
*349 FILLER_0_11_249
*350 FILLER_0_11_261
*351 FILLER_0_11_27
*352 FILLER_0_11_273
*353 FILLER_0_11_279
*354 FILLER_0_11_281
*355 FILLER_0_11_293
*356 FILLER_0_11_3
*357 FILLER_0_11_305
*358 FILLER_0_11_317
*359 FILLER_0_11_329
*360 FILLER_0_11_335
*361 FILLER_0_11_337
*362 FILLER_0_11_349
*363 FILLER_0_11_361
*364 FILLER_0_11_373
*365 FILLER_0_11_385
*366 FILLER_0_11_39
*367 FILLER_0_11_391
*368 FILLER_0_11_393
*369 FILLER_0_11_405
*370 FILLER_0_11_51
*371 FILLER_0_11_55
*372 FILLER_0_11_57
*373 FILLER_0_11_69
*374 FILLER_0_11_81
*375 FILLER_0_11_93
*376 FILLER_0_12_109
*377 FILLER_0_12_121
*378 FILLER_0_12_133
*379 FILLER_0_12_139
*380 FILLER_0_12_141
*381 FILLER_0_12_15
*382 FILLER_0_12_153
*383 FILLER_0_12_165
*384 FILLER_0_12_177
*385 FILLER_0_12_189
*386 FILLER_0_12_195
*387 FILLER_0_12_197
*388 FILLER_0_12_209
*389 FILLER_0_12_221
*390 FILLER_0_12_233
*391 FILLER_0_12_245
*392 FILLER_0_12_251
*393 FILLER_0_12_253
*394 FILLER_0_12_265
*395 FILLER_0_12_27
*396 FILLER_0_12_277
*397 FILLER_0_12_289
*398 FILLER_0_12_29
*399 FILLER_0_12_3
*400 FILLER_0_12_301
*401 FILLER_0_12_307
*402 FILLER_0_12_309
*403 FILLER_0_12_321
*404 FILLER_0_12_333
*405 FILLER_0_12_345
*406 FILLER_0_12_357
*407 FILLER_0_12_363
*408 FILLER_0_12_365
*409 FILLER_0_12_377
*410 FILLER_0_12_389
*411 FILLER_0_12_401
*412 FILLER_0_12_41
*413 FILLER_0_12_53
*414 FILLER_0_12_65
*415 FILLER_0_12_77
*416 FILLER_0_12_83
*417 FILLER_0_12_85
*418 FILLER_0_12_97
*419 FILLER_0_13_105
*420 FILLER_0_13_111
*421 FILLER_0_13_113
*422 FILLER_0_13_125
*423 FILLER_0_13_137
*424 FILLER_0_13_149
*425 FILLER_0_13_15
*426 FILLER_0_13_161
*427 FILLER_0_13_167
*428 FILLER_0_13_169
*429 FILLER_0_13_181
*430 FILLER_0_13_193
*431 FILLER_0_13_205
*432 FILLER_0_13_217
*433 FILLER_0_13_223
*434 FILLER_0_13_225
*435 FILLER_0_13_237
*436 FILLER_0_13_249
*437 FILLER_0_13_261
*438 FILLER_0_13_27
*439 FILLER_0_13_273
*440 FILLER_0_13_279
*441 FILLER_0_13_281
*442 FILLER_0_13_293
*443 FILLER_0_13_3
*444 FILLER_0_13_305
*445 FILLER_0_13_317
*446 FILLER_0_13_329
*447 FILLER_0_13_335
*448 FILLER_0_13_337
*449 FILLER_0_13_349
*450 FILLER_0_13_361
*451 FILLER_0_13_373
*452 FILLER_0_13_385
*453 FILLER_0_13_39
*454 FILLER_0_13_391
*455 FILLER_0_13_393
*456 FILLER_0_13_405
*457 FILLER_0_13_51
*458 FILLER_0_13_55
*459 FILLER_0_13_57
*460 FILLER_0_13_69
*461 FILLER_0_13_81
*462 FILLER_0_13_93
*463 FILLER_0_14_109
*464 FILLER_0_14_121
*465 FILLER_0_14_133
*466 FILLER_0_14_139
*467 FILLER_0_14_141
*468 FILLER_0_14_15
*469 FILLER_0_14_153
*470 FILLER_0_14_165
*471 FILLER_0_14_177
*472 FILLER_0_14_189
*473 FILLER_0_14_195
*474 FILLER_0_14_197
*475 FILLER_0_14_209
*476 FILLER_0_14_221
*477 FILLER_0_14_233
*478 FILLER_0_14_245
*479 FILLER_0_14_251
*480 FILLER_0_14_253
*481 FILLER_0_14_265
*482 FILLER_0_14_27
*483 FILLER_0_14_277
*484 FILLER_0_14_289
*485 FILLER_0_14_29
*486 FILLER_0_14_3
*487 FILLER_0_14_301
*488 FILLER_0_14_307
*489 FILLER_0_14_309
*490 FILLER_0_14_321
*491 FILLER_0_14_333
*492 FILLER_0_14_345
*493 FILLER_0_14_357
*494 FILLER_0_14_363
*495 FILLER_0_14_365
*496 FILLER_0_14_377
*497 FILLER_0_14_389
*498 FILLER_0_14_401
*499 FILLER_0_14_41
*500 FILLER_0_14_53
*501 FILLER_0_14_65
*502 FILLER_0_14_77
*503 FILLER_0_14_83
*504 FILLER_0_14_85
*505 FILLER_0_14_97
*506 FILLER_0_15_105
*507 FILLER_0_15_111
*508 FILLER_0_15_113
*509 FILLER_0_15_125
*510 FILLER_0_15_137
*511 FILLER_0_15_149
*512 FILLER_0_15_15
*513 FILLER_0_15_161
*514 FILLER_0_15_167
*515 FILLER_0_15_169
*516 FILLER_0_15_181
*517 FILLER_0_15_193
*518 FILLER_0_15_205
*519 FILLER_0_15_217
*520 FILLER_0_15_223
*521 FILLER_0_15_225
*522 FILLER_0_15_237
*523 FILLER_0_15_249
*524 FILLER_0_15_261
*525 FILLER_0_15_27
*526 FILLER_0_15_273
*527 FILLER_0_15_279
*528 FILLER_0_15_281
*529 FILLER_0_15_293
*530 FILLER_0_15_3
*531 FILLER_0_15_305
*532 FILLER_0_15_317
*533 FILLER_0_15_329
*534 FILLER_0_15_335
*535 FILLER_0_15_337
*536 FILLER_0_15_349
*537 FILLER_0_15_361
*538 FILLER_0_15_373
*539 FILLER_0_15_385
*540 FILLER_0_15_39
*541 FILLER_0_15_391
*542 FILLER_0_15_393
*543 FILLER_0_15_405
*544 FILLER_0_15_51
*545 FILLER_0_15_55
*546 FILLER_0_15_57
*547 FILLER_0_15_69
*548 FILLER_0_15_81
*549 FILLER_0_15_93
*550 FILLER_0_16_109
*551 FILLER_0_16_121
*552 FILLER_0_16_133
*553 FILLER_0_16_139
*554 FILLER_0_16_141
*555 FILLER_0_16_153
*556 FILLER_0_16_165
*557 FILLER_0_16_177
*558 FILLER_0_16_189
*559 FILLER_0_16_19
*560 FILLER_0_16_195
*561 FILLER_0_16_197
*562 FILLER_0_16_209
*563 FILLER_0_16_221
*564 FILLER_0_16_233
*565 FILLER_0_16_245
*566 FILLER_0_16_251
*567 FILLER_0_16_253
*568 FILLER_0_16_265
*569 FILLER_0_16_27
*570 FILLER_0_16_277
*571 FILLER_0_16_289
*572 FILLER_0_16_29
*573 FILLER_0_16_301
*574 FILLER_0_16_307
*575 FILLER_0_16_309
*576 FILLER_0_16_321
*577 FILLER_0_16_333
*578 FILLER_0_16_345
*579 FILLER_0_16_357
*580 FILLER_0_16_363
*581 FILLER_0_16_365
*582 FILLER_0_16_377
*583 FILLER_0_16_389
*584 FILLER_0_16_401
*585 FILLER_0_16_41
*586 FILLER_0_16_53
*587 FILLER_0_16_65
*588 FILLER_0_16_7
*589 FILLER_0_16_77
*590 FILLER_0_16_83
*591 FILLER_0_16_85
*592 FILLER_0_16_97
*593 FILLER_0_17_105
*594 FILLER_0_17_111
*595 FILLER_0_17_113
*596 FILLER_0_17_125
*597 FILLER_0_17_137
*598 FILLER_0_17_149
*599 FILLER_0_17_15
*600 FILLER_0_17_161
*601 FILLER_0_17_167
*602 FILLER_0_17_169
*603 FILLER_0_17_181
*604 FILLER_0_17_193
*605 FILLER_0_17_205
*606 FILLER_0_17_217
*607 FILLER_0_17_223
*608 FILLER_0_17_225
*609 FILLER_0_17_237
*610 FILLER_0_17_249
*611 FILLER_0_17_261
*612 FILLER_0_17_27
*613 FILLER_0_17_273
*614 FILLER_0_17_279
*615 FILLER_0_17_281
*616 FILLER_0_17_293
*617 FILLER_0_17_3
*618 FILLER_0_17_305
*619 FILLER_0_17_317
*620 FILLER_0_17_329
*621 FILLER_0_17_335
*622 FILLER_0_17_337
*623 FILLER_0_17_349
*624 FILLER_0_17_361
*625 FILLER_0_17_373
*626 FILLER_0_17_385
*627 FILLER_0_17_39
*628 FILLER_0_17_391
*629 FILLER_0_17_393
*630 FILLER_0_17_405
*631 FILLER_0_17_51
*632 FILLER_0_17_55
*633 FILLER_0_17_57
*634 FILLER_0_17_69
*635 FILLER_0_17_81
*636 FILLER_0_17_93
*637 FILLER_0_18_109
*638 FILLER_0_18_121
*639 FILLER_0_18_133
*640 FILLER_0_18_139
*641 FILLER_0_18_141
*642 FILLER_0_18_15
*643 FILLER_0_18_153
*644 FILLER_0_18_165
*645 FILLER_0_18_177
*646 FILLER_0_18_189
*647 FILLER_0_18_195
*648 FILLER_0_18_197
*649 FILLER_0_18_209
*650 FILLER_0_18_221
*651 FILLER_0_18_233
*652 FILLER_0_18_245
*653 FILLER_0_18_251
*654 FILLER_0_18_253
*655 FILLER_0_18_265
*656 FILLER_0_18_27
*657 FILLER_0_18_277
*658 FILLER_0_18_289
*659 FILLER_0_18_29
*660 FILLER_0_18_3
*661 FILLER_0_18_301
*662 FILLER_0_18_307
*663 FILLER_0_18_309
*664 FILLER_0_18_321
*665 FILLER_0_18_333
*666 FILLER_0_18_345
*667 FILLER_0_18_357
*668 FILLER_0_18_363
*669 FILLER_0_18_365
*670 FILLER_0_18_377
*671 FILLER_0_18_389
*672 FILLER_0_18_401
*673 FILLER_0_18_41
*674 FILLER_0_18_53
*675 FILLER_0_18_65
*676 FILLER_0_18_77
*677 FILLER_0_18_83
*678 FILLER_0_18_85
*679 FILLER_0_18_97
*680 FILLER_0_19_105
*681 FILLER_0_19_111
*682 FILLER_0_19_113
*683 FILLER_0_19_125
*684 FILLER_0_19_137
*685 FILLER_0_19_149
*686 FILLER_0_19_15
*687 FILLER_0_19_161
*688 FILLER_0_19_167
*689 FILLER_0_19_169
*690 FILLER_0_19_181
*691 FILLER_0_19_193
*692 FILLER_0_19_205
*693 FILLER_0_19_217
*694 FILLER_0_19_223
*695 FILLER_0_19_225
*696 FILLER_0_19_237
*697 FILLER_0_19_249
*698 FILLER_0_19_261
*699 FILLER_0_19_27
*700 FILLER_0_19_273
*701 FILLER_0_19_279
*702 FILLER_0_19_281
*703 FILLER_0_19_293
*704 FILLER_0_19_3
*705 FILLER_0_19_305
*706 FILLER_0_19_317
*707 FILLER_0_19_329
*708 FILLER_0_19_335
*709 FILLER_0_19_337
*710 FILLER_0_19_349
*711 FILLER_0_19_361
*712 FILLER_0_19_373
*713 FILLER_0_19_385
*714 FILLER_0_19_39
*715 FILLER_0_19_391
*716 FILLER_0_19_393
*717 FILLER_0_19_51
*718 FILLER_0_19_55
*719 FILLER_0_19_57
*720 FILLER_0_19_69
*721 FILLER_0_19_81
*722 FILLER_0_19_93
*723 FILLER_0_1_105
*724 FILLER_0_1_111
*725 FILLER_0_1_113
*726 FILLER_0_1_125
*727 FILLER_0_1_137
*728 FILLER_0_1_149
*729 FILLER_0_1_15
*730 FILLER_0_1_161
*731 FILLER_0_1_167
*732 FILLER_0_1_169
*733 FILLER_0_1_181
*734 FILLER_0_1_193
*735 FILLER_0_1_205
*736 FILLER_0_1_217
*737 FILLER_0_1_223
*738 FILLER_0_1_225
*739 FILLER_0_1_237
*740 FILLER_0_1_249
*741 FILLER_0_1_261
*742 FILLER_0_1_27
*743 FILLER_0_1_273
*744 FILLER_0_1_279
*745 FILLER_0_1_281
*746 FILLER_0_1_293
*747 FILLER_0_1_3
*748 FILLER_0_1_305
*749 FILLER_0_1_317
*750 FILLER_0_1_329
*751 FILLER_0_1_335
*752 FILLER_0_1_337
*753 FILLER_0_1_349
*754 FILLER_0_1_361
*755 FILLER_0_1_373
*756 FILLER_0_1_385
*757 FILLER_0_1_39
*758 FILLER_0_1_391
*759 FILLER_0_1_393
*760 FILLER_0_1_405
*761 FILLER_0_1_51
*762 FILLER_0_1_55
*763 FILLER_0_1_57
*764 FILLER_0_1_69
*765 FILLER_0_1_81
*766 FILLER_0_1_93
*767 FILLER_0_20_109
*768 FILLER_0_20_121
*769 FILLER_0_20_133
*770 FILLER_0_20_139
*771 FILLER_0_20_141
*772 FILLER_0_20_15
*773 FILLER_0_20_153
*774 FILLER_0_20_165
*775 FILLER_0_20_177
*776 FILLER_0_20_189
*777 FILLER_0_20_195
*778 FILLER_0_20_197
*779 FILLER_0_20_209
*780 FILLER_0_20_221
*781 FILLER_0_20_233
*782 FILLER_0_20_245
*783 FILLER_0_20_251
*784 FILLER_0_20_253
*785 FILLER_0_20_265
*786 FILLER_0_20_27
*787 FILLER_0_20_277
*788 FILLER_0_20_289
*789 FILLER_0_20_29
*790 FILLER_0_20_3
*791 FILLER_0_20_301
*792 FILLER_0_20_307
*793 FILLER_0_20_309
*794 FILLER_0_20_321
*795 FILLER_0_20_333
*796 FILLER_0_20_345
*797 FILLER_0_20_357
*798 FILLER_0_20_363
*799 FILLER_0_20_365
*800 FILLER_0_20_377
*801 FILLER_0_20_389
*802 FILLER_0_20_401
*803 FILLER_0_20_41
*804 FILLER_0_20_53
*805 FILLER_0_20_65
*806 FILLER_0_20_77
*807 FILLER_0_20_83
*808 FILLER_0_20_85
*809 FILLER_0_20_97
*810 FILLER_0_21_105
*811 FILLER_0_21_111
*812 FILLER_0_21_113
*813 FILLER_0_21_125
*814 FILLER_0_21_137
*815 FILLER_0_21_149
*816 FILLER_0_21_15
*817 FILLER_0_21_161
*818 FILLER_0_21_167
*819 FILLER_0_21_169
*820 FILLER_0_21_181
*821 FILLER_0_21_193
*822 FILLER_0_21_205
*823 FILLER_0_21_217
*824 FILLER_0_21_223
*825 FILLER_0_21_225
*826 FILLER_0_21_237
*827 FILLER_0_21_249
*828 FILLER_0_21_261
*829 FILLER_0_21_27
*830 FILLER_0_21_273
*831 FILLER_0_21_279
*832 FILLER_0_21_281
*833 FILLER_0_21_293
*834 FILLER_0_21_3
*835 FILLER_0_21_305
*836 FILLER_0_21_317
*837 FILLER_0_21_329
*838 FILLER_0_21_335
*839 FILLER_0_21_337
*840 FILLER_0_21_349
*841 FILLER_0_21_361
*842 FILLER_0_21_373
*843 FILLER_0_21_385
*844 FILLER_0_21_39
*845 FILLER_0_21_391
*846 FILLER_0_21_393
*847 FILLER_0_21_405
*848 FILLER_0_21_51
*849 FILLER_0_21_55
*850 FILLER_0_21_57
*851 FILLER_0_21_69
*852 FILLER_0_21_81
*853 FILLER_0_21_93
*854 FILLER_0_22_109
*855 FILLER_0_22_121
*856 FILLER_0_22_133
*857 FILLER_0_22_139
*858 FILLER_0_22_141
*859 FILLER_0_22_15
*860 FILLER_0_22_153
*861 FILLER_0_22_165
*862 FILLER_0_22_177
*863 FILLER_0_22_189
*864 FILLER_0_22_195
*865 FILLER_0_22_197
*866 FILLER_0_22_209
*867 FILLER_0_22_221
*868 FILLER_0_22_233
*869 FILLER_0_22_242
*870 FILLER_0_22_251
*871 FILLER_0_22_253
*872 FILLER_0_22_265
*873 FILLER_0_22_27
*874 FILLER_0_22_277
*875 FILLER_0_22_289
*876 FILLER_0_22_29
*877 FILLER_0_22_3
*878 FILLER_0_22_301
*879 FILLER_0_22_307
*880 FILLER_0_22_309
*881 FILLER_0_22_321
*882 FILLER_0_22_333
*883 FILLER_0_22_345
*884 FILLER_0_22_357
*885 FILLER_0_22_363
*886 FILLER_0_22_365
*887 FILLER_0_22_377
*888 FILLER_0_22_389
*889 FILLER_0_22_401
*890 FILLER_0_22_41
*891 FILLER_0_22_53
*892 FILLER_0_22_65
*893 FILLER_0_22_77
*894 FILLER_0_22_83
*895 FILLER_0_22_85
*896 FILLER_0_22_97
*897 FILLER_0_23_105
*898 FILLER_0_23_111
*899 FILLER_0_23_113
*900 FILLER_0_23_125
*901 FILLER_0_23_137
*902 FILLER_0_23_149
*903 FILLER_0_23_15
*904 FILLER_0_23_161
*905 FILLER_0_23_167
*906 FILLER_0_23_169
*907 FILLER_0_23_181
*908 FILLER_0_23_193
*909 FILLER_0_23_205
*910 FILLER_0_23_231
*911 FILLER_0_23_255
*912 FILLER_0_23_267
*913 FILLER_0_23_27
*914 FILLER_0_23_279
*915 FILLER_0_23_281
*916 FILLER_0_23_293
*917 FILLER_0_23_3
*918 FILLER_0_23_305
*919 FILLER_0_23_317
*920 FILLER_0_23_329
*921 FILLER_0_23_335
*922 FILLER_0_23_337
*923 FILLER_0_23_349
*924 FILLER_0_23_361
*925 FILLER_0_23_369
*926 FILLER_0_23_374
*927 FILLER_0_23_386
*928 FILLER_0_23_39
*929 FILLER_0_23_393
*930 FILLER_0_23_405
*931 FILLER_0_23_51
*932 FILLER_0_23_55
*933 FILLER_0_23_57
*934 FILLER_0_23_69
*935 FILLER_0_23_81
*936 FILLER_0_23_93
*937 FILLER_0_24_109
*938 FILLER_0_24_121
*939 FILLER_0_24_133
*940 FILLER_0_24_139
*941 FILLER_0_24_141
*942 FILLER_0_24_15
*943 FILLER_0_24_153
*944 FILLER_0_24_165
*945 FILLER_0_24_177
*946 FILLER_0_24_189
*947 FILLER_0_24_195
*948 FILLER_0_24_197
*949 FILLER_0_24_209
*950 FILLER_0_24_226
*951 FILLER_0_24_238
*952 FILLER_0_24_242
*953 FILLER_0_24_250
*954 FILLER_0_24_253
*955 FILLER_0_24_265
*956 FILLER_0_24_27
*957 FILLER_0_24_275
*958 FILLER_0_24_287
*959 FILLER_0_24_29
*960 FILLER_0_24_299
*961 FILLER_0_24_3
*962 FILLER_0_24_307
*963 FILLER_0_24_309
*964 FILLER_0_24_321
*965 FILLER_0_24_333
*966 FILLER_0_24_345
*967 FILLER_0_24_357
*968 FILLER_0_24_363
*969 FILLER_0_24_365
*970 FILLER_0_24_377
*971 FILLER_0_24_389
*972 FILLER_0_24_401
*973 FILLER_0_24_41
*974 FILLER_0_24_53
*975 FILLER_0_24_65
*976 FILLER_0_24_77
*977 FILLER_0_24_83
*978 FILLER_0_24_85
*979 FILLER_0_24_97
*980 FILLER_0_25_105
*981 FILLER_0_25_111
*982 FILLER_0_25_113
*983 FILLER_0_25_125
*984 FILLER_0_25_137
*985 FILLER_0_25_149
*986 FILLER_0_25_15
*987 FILLER_0_25_161
*988 FILLER_0_25_167
*989 FILLER_0_25_169
*990 FILLER_0_25_181
*991 FILLER_0_25_193
*992 FILLER_0_25_198
*993 FILLER_0_25_208
*994 FILLER_0_25_223
*995 FILLER_0_25_239
*996 FILLER_0_25_259
*997 FILLER_0_25_27
*998 FILLER_0_25_285
*999 FILLER_0_25_3
*1000 FILLER_0_25_302
*1001 FILLER_0_25_314
*1002 FILLER_0_25_326
*1003 FILLER_0_25_334
*1004 FILLER_0_25_337
*1005 FILLER_0_25_349
*1006 FILLER_0_25_361
*1007 FILLER_0_25_373
*1008 FILLER_0_25_385
*1009 FILLER_0_25_39
*1010 FILLER_0_25_391
*1011 FILLER_0_25_393
*1012 FILLER_0_25_405
*1013 FILLER_0_25_51
*1014 FILLER_0_25_55
*1015 FILLER_0_25_57
*1016 FILLER_0_25_69
*1017 FILLER_0_25_81
*1018 FILLER_0_25_93
*1019 FILLER_0_26_109
*1020 FILLER_0_26_121
*1021 FILLER_0_26_133
*1022 FILLER_0_26_139
*1023 FILLER_0_26_141
*1024 FILLER_0_26_153
*1025 FILLER_0_26_165
*1026 FILLER_0_26_177
*1027 FILLER_0_26_185
*1028 FILLER_0_26_19
*1029 FILLER_0_26_213
*1030 FILLER_0_26_222
*1031 FILLER_0_26_234
*1032 FILLER_0_26_238
*1033 FILLER_0_26_246
*1034 FILLER_0_26_253
*1035 FILLER_0_26_265
*1036 FILLER_0_26_27
*1037 FILLER_0_26_271
*1038 FILLER_0_26_283
*1039 FILLER_0_26_29
*1040 FILLER_0_26_299
*1041 FILLER_0_26_307
*1042 FILLER_0_26_309
*1043 FILLER_0_26_321
*1044 FILLER_0_26_333
*1045 FILLER_0_26_345
*1046 FILLER_0_26_357
*1047 FILLER_0_26_363
*1048 FILLER_0_26_365
*1049 FILLER_0_26_377
*1050 FILLER_0_26_389
*1051 FILLER_0_26_401
*1052 FILLER_0_26_41
*1053 FILLER_0_26_53
*1054 FILLER_0_26_65
*1055 FILLER_0_26_7
*1056 FILLER_0_26_77
*1057 FILLER_0_26_83
*1058 FILLER_0_26_85
*1059 FILLER_0_26_97
*1060 FILLER_0_27_105
*1061 FILLER_0_27_111
*1062 FILLER_0_27_113
*1063 FILLER_0_27_125
*1064 FILLER_0_27_137
*1065 FILLER_0_27_149
*1066 FILLER_0_27_15
*1067 FILLER_0_27_161
*1068 FILLER_0_27_167
*1069 FILLER_0_27_169
*1070 FILLER_0_27_181
*1071 FILLER_0_27_193
*1072 FILLER_0_27_200
*1073 FILLER_0_27_206
*1074 FILLER_0_27_217
*1075 FILLER_0_27_223
*1076 FILLER_0_27_225
*1077 FILLER_0_27_237
*1078 FILLER_0_27_241
*1079 FILLER_0_27_255
*1080 FILLER_0_27_261
*1081 FILLER_0_27_27
*1082 FILLER_0_27_277
*1083 FILLER_0_27_281
*1084 FILLER_0_27_3
*1085 FILLER_0_27_302
*1086 FILLER_0_27_314
*1087 FILLER_0_27_326
*1088 FILLER_0_27_334
*1089 FILLER_0_27_337
*1090 FILLER_0_27_349
*1091 FILLER_0_27_361
*1092 FILLER_0_27_373
*1093 FILLER_0_27_385
*1094 FILLER_0_27_39
*1095 FILLER_0_27_391
*1096 FILLER_0_27_393
*1097 FILLER_0_27_405
*1098 FILLER_0_27_51
*1099 FILLER_0_27_55
*1100 FILLER_0_27_57
*1101 FILLER_0_27_69
*1102 FILLER_0_27_81
*1103 FILLER_0_27_93
*1104 FILLER_0_28_109
*1105 FILLER_0_28_121
*1106 FILLER_0_28_133
*1107 FILLER_0_28_139
*1108 FILLER_0_28_141
*1109 FILLER_0_28_15
*1110 FILLER_0_28_153
*1111 FILLER_0_28_165
*1112 FILLER_0_28_177
*1113 FILLER_0_28_189
*1114 FILLER_0_28_195
*1115 FILLER_0_28_197
*1116 FILLER_0_28_216
*1117 FILLER_0_28_221
*1118 FILLER_0_28_227
*1119 FILLER_0_28_234
*1120 FILLER_0_28_246
*1121 FILLER_0_28_253
*1122 FILLER_0_28_265
*1123 FILLER_0_28_27
*1124 FILLER_0_28_277
*1125 FILLER_0_28_285
*1126 FILLER_0_28_29
*1127 FILLER_0_28_3
*1128 FILLER_0_28_304
*1129 FILLER_0_28_309
*1130 FILLER_0_28_321
*1131 FILLER_0_28_333
*1132 FILLER_0_28_345
*1133 FILLER_0_28_357
*1134 FILLER_0_28_363
*1135 FILLER_0_28_365
*1136 FILLER_0_28_377
*1137 FILLER_0_28_389
*1138 FILLER_0_28_401
*1139 FILLER_0_28_41
*1140 FILLER_0_28_53
*1141 FILLER_0_28_65
*1142 FILLER_0_28_77
*1143 FILLER_0_28_83
*1144 FILLER_0_28_85
*1145 FILLER_0_28_97
*1146 FILLER_0_29_105
*1147 FILLER_0_29_111
*1148 FILLER_0_29_113
*1149 FILLER_0_29_125
*1150 FILLER_0_29_137
*1151 FILLER_0_29_149
*1152 FILLER_0_29_15
*1153 FILLER_0_29_161
*1154 FILLER_0_29_167
*1155 FILLER_0_29_178
*1156 FILLER_0_29_186
*1157 FILLER_0_29_193
*1158 FILLER_0_29_205
*1159 FILLER_0_29_223
*1160 FILLER_0_29_242
*1161 FILLER_0_29_259
*1162 FILLER_0_29_267
*1163 FILLER_0_29_27
*1164 FILLER_0_29_274
*1165 FILLER_0_29_281
*1166 FILLER_0_29_289
*1167 FILLER_0_29_3
*1168 FILLER_0_29_305
*1169 FILLER_0_29_317
*1170 FILLER_0_29_329
*1171 FILLER_0_29_335
*1172 FILLER_0_29_337
*1173 FILLER_0_29_349
*1174 FILLER_0_29_361
*1175 FILLER_0_29_373
*1176 FILLER_0_29_385
*1177 FILLER_0_29_39
*1178 FILLER_0_29_391
*1179 FILLER_0_29_393
*1180 FILLER_0_29_51
*1181 FILLER_0_29_55
*1182 FILLER_0_29_57
*1183 FILLER_0_29_69
*1184 FILLER_0_29_81
*1185 FILLER_0_29_93
*1186 FILLER_0_2_109
*1187 FILLER_0_2_121
*1188 FILLER_0_2_133
*1189 FILLER_0_2_139
*1190 FILLER_0_2_141
*1191 FILLER_0_2_15
*1192 FILLER_0_2_153
*1193 FILLER_0_2_165
*1194 FILLER_0_2_177
*1195 FILLER_0_2_189
*1196 FILLER_0_2_195
*1197 FILLER_0_2_197
*1198 FILLER_0_2_209
*1199 FILLER_0_2_221
*1200 FILLER_0_2_233
*1201 FILLER_0_2_245
*1202 FILLER_0_2_251
*1203 FILLER_0_2_253
*1204 FILLER_0_2_265
*1205 FILLER_0_2_27
*1206 FILLER_0_2_277
*1207 FILLER_0_2_289
*1208 FILLER_0_2_29
*1209 FILLER_0_2_3
*1210 FILLER_0_2_301
*1211 FILLER_0_2_307
*1212 FILLER_0_2_309
*1213 FILLER_0_2_321
*1214 FILLER_0_2_333
*1215 FILLER_0_2_345
*1216 FILLER_0_2_357
*1217 FILLER_0_2_363
*1218 FILLER_0_2_365
*1219 FILLER_0_2_377
*1220 FILLER_0_2_389
*1221 FILLER_0_2_401
*1222 FILLER_0_2_41
*1223 FILLER_0_2_53
*1224 FILLER_0_2_65
*1225 FILLER_0_2_77
*1226 FILLER_0_2_83
*1227 FILLER_0_2_85
*1228 FILLER_0_2_97
*1229 FILLER_0_30_109
*1230 FILLER_0_30_121
*1231 FILLER_0_30_133
*1232 FILLER_0_30_139
*1233 FILLER_0_30_141
*1234 FILLER_0_30_15
*1235 FILLER_0_30_153
*1236 FILLER_0_30_165
*1237 FILLER_0_30_174
*1238 FILLER_0_30_206
*1239 FILLER_0_30_218
*1240 FILLER_0_30_236
*1241 FILLER_0_30_246
*1242 FILLER_0_30_253
*1243 FILLER_0_30_27
*1244 FILLER_0_30_284
*1245 FILLER_0_30_288
*1246 FILLER_0_30_29
*1247 FILLER_0_30_3
*1248 FILLER_0_30_305
*1249 FILLER_0_30_313
*1250 FILLER_0_30_325
*1251 FILLER_0_30_337
*1252 FILLER_0_30_349
*1253 FILLER_0_30_361
*1254 FILLER_0_30_365
*1255 FILLER_0_30_377
*1256 FILLER_0_30_389
*1257 FILLER_0_30_401
*1258 FILLER_0_30_41
*1259 FILLER_0_30_53
*1260 FILLER_0_30_65
*1261 FILLER_0_30_77
*1262 FILLER_0_30_83
*1263 FILLER_0_30_85
*1264 FILLER_0_30_97
*1265 FILLER_0_31_105
*1266 FILLER_0_31_111
*1267 FILLER_0_31_113
*1268 FILLER_0_31_125
*1269 FILLER_0_31_137
*1270 FILLER_0_31_149
*1271 FILLER_0_31_15
*1272 FILLER_0_31_161
*1273 FILLER_0_31_167
*1274 FILLER_0_31_207
*1275 FILLER_0_31_218
*1276 FILLER_0_31_225
*1277 FILLER_0_31_231
*1278 FILLER_0_31_247
*1279 FILLER_0_31_255
*1280 FILLER_0_31_263
*1281 FILLER_0_31_27
*1282 FILLER_0_31_275
*1283 FILLER_0_31_279
*1284 FILLER_0_31_285
*1285 FILLER_0_31_289
*1286 FILLER_0_31_3
*1287 FILLER_0_31_305
*1288 FILLER_0_31_317
*1289 FILLER_0_31_329
*1290 FILLER_0_31_335
*1291 FILLER_0_31_337
*1292 FILLER_0_31_349
*1293 FILLER_0_31_361
*1294 FILLER_0_31_373
*1295 FILLER_0_31_385
*1296 FILLER_0_31_39
*1297 FILLER_0_31_391
*1298 FILLER_0_31_393
*1299 FILLER_0_31_405
*1300 FILLER_0_31_51
*1301 FILLER_0_31_55
*1302 FILLER_0_31_57
*1303 FILLER_0_31_69
*1304 FILLER_0_31_81
*1305 FILLER_0_31_93
*1306 FILLER_0_32_109
*1307 FILLER_0_32_121
*1308 FILLER_0_32_133
*1309 FILLER_0_32_139
*1310 FILLER_0_32_141
*1311 FILLER_0_32_15
*1312 FILLER_0_32_153
*1313 FILLER_0_32_165
*1314 FILLER_0_32_192
*1315 FILLER_0_32_197
*1316 FILLER_0_32_205
*1317 FILLER_0_32_213
*1318 FILLER_0_32_225
*1319 FILLER_0_32_244
*1320 FILLER_0_32_253
*1321 FILLER_0_32_261
*1322 FILLER_0_32_27
*1323 FILLER_0_32_273
*1324 FILLER_0_32_285
*1325 FILLER_0_32_29
*1326 FILLER_0_32_3
*1327 FILLER_0_32_300
*1328 FILLER_0_32_306
*1329 FILLER_0_32_309
*1330 FILLER_0_32_321
*1331 FILLER_0_32_333
*1332 FILLER_0_32_345
*1333 FILLER_0_32_357
*1334 FILLER_0_32_363
*1335 FILLER_0_32_365
*1336 FILLER_0_32_377
*1337 FILLER_0_32_389
*1338 FILLER_0_32_401
*1339 FILLER_0_32_41
*1340 FILLER_0_32_53
*1341 FILLER_0_32_65
*1342 FILLER_0_32_77
*1343 FILLER_0_32_83
*1344 FILLER_0_32_85
*1345 FILLER_0_32_97
*1346 FILLER_0_33_105
*1347 FILLER_0_33_111
*1348 FILLER_0_33_113
*1349 FILLER_0_33_125
*1350 FILLER_0_33_137
*1351 FILLER_0_33_149
*1352 FILLER_0_33_15
*1353 FILLER_0_33_161
*1354 FILLER_0_33_167
*1355 FILLER_0_33_169
*1356 FILLER_0_33_173
*1357 FILLER_0_33_189
*1358 FILLER_0_33_201
*1359 FILLER_0_33_209
*1360 FILLER_0_33_220
*1361 FILLER_0_33_232
*1362 FILLER_0_33_241
*1363 FILLER_0_33_248
*1364 FILLER_0_33_261
*1365 FILLER_0_33_27
*1366 FILLER_0_33_277
*1367 FILLER_0_33_281
*1368 FILLER_0_33_298
*1369 FILLER_0_33_3
*1370 FILLER_0_33_310
*1371 FILLER_0_33_322
*1372 FILLER_0_33_334
*1373 FILLER_0_33_337
*1374 FILLER_0_33_349
*1375 FILLER_0_33_361
*1376 FILLER_0_33_373
*1377 FILLER_0_33_385
*1378 FILLER_0_33_39
*1379 FILLER_0_33_391
*1380 FILLER_0_33_393
*1381 FILLER_0_33_405
*1382 FILLER_0_33_51
*1383 FILLER_0_33_55
*1384 FILLER_0_33_57
*1385 FILLER_0_33_69
*1386 FILLER_0_33_81
*1387 FILLER_0_33_93
*1388 FILLER_0_34_109
*1389 FILLER_0_34_121
*1390 FILLER_0_34_133
*1391 FILLER_0_34_139
*1392 FILLER_0_34_141
*1393 FILLER_0_34_15
*1394 FILLER_0_34_153
*1395 FILLER_0_34_165
*1396 FILLER_0_34_173
*1397 FILLER_0_34_180
*1398 FILLER_0_34_192
*1399 FILLER_0_34_197
*1400 FILLER_0_34_226
*1401 FILLER_0_34_232
*1402 FILLER_0_34_250
*1403 FILLER_0_34_261
*1404 FILLER_0_34_27
*1405 FILLER_0_34_277
*1406 FILLER_0_34_285
*1407 FILLER_0_34_29
*1408 FILLER_0_34_3
*1409 FILLER_0_34_304
*1410 FILLER_0_34_309
*1411 FILLER_0_34_321
*1412 FILLER_0_34_333
*1413 FILLER_0_34_345
*1414 FILLER_0_34_357
*1415 FILLER_0_34_363
*1416 FILLER_0_34_365
*1417 FILLER_0_34_377
*1418 FILLER_0_34_389
*1419 FILLER_0_34_401
*1420 FILLER_0_34_41
*1421 FILLER_0_34_53
*1422 FILLER_0_34_65
*1423 FILLER_0_34_77
*1424 FILLER_0_34_83
*1425 FILLER_0_34_85
*1426 FILLER_0_34_97
*1427 FILLER_0_35_105
*1428 FILLER_0_35_111
*1429 FILLER_0_35_113
*1430 FILLER_0_35_125
*1431 FILLER_0_35_137
*1432 FILLER_0_35_149
*1433 FILLER_0_35_15
*1434 FILLER_0_35_161
*1435 FILLER_0_35_167
*1436 FILLER_0_35_169
*1437 FILLER_0_35_217
*1438 FILLER_0_35_223
*1439 FILLER_0_35_225
*1440 FILLER_0_35_233
*1441 FILLER_0_35_239
*1442 FILLER_0_35_250
*1443 FILLER_0_35_262
*1444 FILLER_0_35_27
*1445 FILLER_0_35_281
*1446 FILLER_0_35_296
*1447 FILLER_0_35_3
*1448 FILLER_0_35_301
*1449 FILLER_0_35_313
*1450 FILLER_0_35_325
*1451 FILLER_0_35_333
*1452 FILLER_0_35_337
*1453 FILLER_0_35_349
*1454 FILLER_0_35_361
*1455 FILLER_0_35_373
*1456 FILLER_0_35_385
*1457 FILLER_0_35_39
*1458 FILLER_0_35_391
*1459 FILLER_0_35_393
*1460 FILLER_0_35_405
*1461 FILLER_0_35_51
*1462 FILLER_0_35_55
*1463 FILLER_0_35_57
*1464 FILLER_0_35_69
*1465 FILLER_0_35_81
*1466 FILLER_0_35_93
*1467 FILLER_0_36_109
*1468 FILLER_0_36_121
*1469 FILLER_0_36_133
*1470 FILLER_0_36_139
*1471 FILLER_0_36_141
*1472 FILLER_0_36_153
*1473 FILLER_0_36_165
*1474 FILLER_0_36_177
*1475 FILLER_0_36_19
*1476 FILLER_0_36_195
*1477 FILLER_0_36_222
*1478 FILLER_0_36_238
*1479 FILLER_0_36_250
*1480 FILLER_0_36_253
*1481 FILLER_0_36_265
*1482 FILLER_0_36_269
*1483 FILLER_0_36_27
*1484 FILLER_0_36_273
*1485 FILLER_0_36_285
*1486 FILLER_0_36_29
*1487 FILLER_0_36_297
*1488 FILLER_0_36_305
*1489 FILLER_0_36_309
*1490 FILLER_0_36_321
*1491 FILLER_0_36_333
*1492 FILLER_0_36_345
*1493 FILLER_0_36_357
*1494 FILLER_0_36_363
*1495 FILLER_0_36_365
*1496 FILLER_0_36_377
*1497 FILLER_0_36_389
*1498 FILLER_0_36_401
*1499 FILLER_0_36_41
*1500 FILLER_0_36_53
*1501 FILLER_0_36_65
*1502 FILLER_0_36_7
*1503 FILLER_0_36_77
*1504 FILLER_0_36_83
*1505 FILLER_0_36_85
*1506 FILLER_0_36_97
*1507 FILLER_0_37_105
*1508 FILLER_0_37_111
*1509 FILLER_0_37_113
*1510 FILLER_0_37_125
*1511 FILLER_0_37_137
*1512 FILLER_0_37_149
*1513 FILLER_0_37_15
*1514 FILLER_0_37_161
*1515 FILLER_0_37_167
*1516 FILLER_0_37_169
*1517 FILLER_0_37_181
*1518 FILLER_0_37_197
*1519 FILLER_0_37_221
*1520 FILLER_0_37_229
*1521 FILLER_0_37_236
*1522 FILLER_0_37_258
*1523 FILLER_0_37_264
*1524 FILLER_0_37_27
*1525 FILLER_0_37_272
*1526 FILLER_0_37_281
*1527 FILLER_0_37_293
*1528 FILLER_0_37_3
*1529 FILLER_0_37_305
*1530 FILLER_0_37_317
*1531 FILLER_0_37_329
*1532 FILLER_0_37_335