*SPEF "ieee 1481-1999"
*DESIGN "alu8"
*DATE "11:11:11 Fri 11 11, 1111"
*VENDOR "OpenRCX"
*PROGRAM "Parallel Extraction"
*VERSION "1.0"
*DESIGN_FLOW "NAME_SCOPE LOCAL" "PIN_CAP NONE"
*DIVIDER /
*DELIMITER :
*BUS_DELIMITER []
*T_UNIT 1 NS
*C_UNIT 1 PF
*R_UNIT 1 OHM
*L_UNIT 1 HENRY

*NAME_MAP
*1 A[0]
*2 A[1]
*3 A[2]
*4 A[3]
*5 A[4]
*6 A[5]
*7 A[6]
*8 A[7]
*9 B[0]
*10 B[1]
*11 B[2]
*12 B[3]
*13 B[4]
*14 B[5]
*15 B[6]
*16 B[7]
*17 CarryOut
*18 Result[0]
*19 Result[1]
*20 Result[2]
*21 Result[3]
*22 Result[4]
*23 Result[5]
*24 Result[6]
*25 Result[7]
*26 Sel[0]
*27 Sel[1]
*28 Sel[2]
*29 Sel[3]
*32 Zero
*33 _000_
*34 _001_
*35 _002_
*36 _003_
*37 _004_
*38 _005_
*39 _006_
*40 _007_
*41 _008_
*42 _009_
*43 _010_
*44 _011_
*45 _012_
*46 _013_
*47 _014_
*48 _015_
*49 _016_
*50 _017_
*51 _018_
*52 _019_
*53 _020_
*54 _021_
*55 _022_
*56 _023_
*57 _024_
*58 _025_
*59 _026_
*60 _027_
*61 _028_
*62 _029_
*63 _030_
*64 _031_
*65 _032_
*66 _033_
*67 _034_
*68 _035_
*69 _036_
*70 _037_
*71 _038_
*72 _039_
*73 _040_
*74 _041_
*75 _042_
*76 _043_
*77 _044_
*78 _045_
*79 _046_
*80 _047_
*81 _048_
*82 _049_
*83 _050_
*84 _051_
*85 _052_
*86 _053_
*87 _054_
*88 _055_
*89 _056_
*90 _057_
*91 _058_
*92 _059_
*93 _060_
*94 _061_
*95 _062_
*96 _063_
*97 _064_
*98 _065_
*99 _066_
*100 _067_
*101 _068_
*102 _069_
*103 _070_
*104 _071_
*105 _072_
*106 _073_
*107 _074_
*108 _075_
*109 _076_
*110 _077_
*111 _078_
*112 _079_
*113 _080_
*114 _081_
*115 _082_
*116 _083_
*117 _084_
*118 _085_
*119 _086_
*120 _087_
*121 _088_
*122 _089_
*123 _090_
*124 _091_
*125 _092_
*126 _093_
*127 _094_
*128 _095_
*129 _096_
*130 _097_
*131 _098_
*132 _099_
*133 _100_
*134 _101_
*135 _102_
*136 _103_
*137 _104_
*138 _105_
*139 _106_
*140 _107_
*141 _108_
*142 _109_
*143 _110_
*144 _111_
*145 _112_
*146 _113_
*147 _114_
*148 _115_
*149 _116_
*150 _117_
*151 _118_
*152 _119_
*153 _120_
*154 _121_
*155 _122_
*156 _123_
*157 _124_
*158 _125_
*159 _126_
*160 _127_
*161 _128_
*162 _129_
*163 _130_
*164 _131_
*165 _132_
*166 _133_
*167 _134_
*168 _135_
*169 _136_
*170 _137_
*171 _138_
*172 _139_
*173 _140_
*174 _141_
*175 _142_
*176 _143_
*177 _144_
*178 _145_
*179 _146_
*180 _147_
*181 _148_
*182 _149_
*183 _150_
*184 _151_
*185 _152_
*186 _153_
*187 _154_
*188 _155_
*189 _156_
*190 _157_
*191 _158_
*192 _159_
*193 _160_
*194 _161_
*195 _162_
*196 _163_
*197 _164_
*198 _165_
*199 _166_
*200 _167_
*201 _168_
*202 _169_
*203 _170_
*204 _171_
*205 _172_
*206 _173_
*207 _174_
*208 _175_
*209 net1
*210 net10
*211 net11
*212 net12
*213 net13
*214 net14
*215 net15
*216 net16
*217 net17
*218 net18
*219 net19
*220 net2
*221 net20
*222 net21
*223 net22
*224 net23
*225 net24
*226 net25
*227 net26
*228 net27
*229 net28
*230 net29
*231 net3
*232 net30
*233 net31
*234 net32
*235 net33
*236 net4
*237 net5
*238 net6
*239 net7
*240 net8
*241 net9
*242 FILLER_0_0_1007
*243 FILLER_0_0_1009
*244 FILLER_0_0_1021
*245 FILLER_0_0_1033
*246 FILLER_0_0_1037
*247 FILLER_0_0_1049
*248 FILLER_0_0_1057
*249 FILLER_0_0_109
*250 FILLER_0_0_113
*251 FILLER_0_0_125
*252 FILLER_0_0_133
*253 FILLER_0_0_139
*254 FILLER_0_0_141
*255 FILLER_0_0_153
*256 FILLER_0_0_165
*257 FILLER_0_0_169
*258 FILLER_0_0_181
*259 FILLER_0_0_193
*260 FILLER_0_0_197
*261 FILLER_0_0_209
*262 FILLER_0_0_21
*263 FILLER_0_0_221
*264 FILLER_0_0_225
*265 FILLER_0_0_237
*266 FILLER_0_0_249
*267 FILLER_0_0_253
*268 FILLER_0_0_265
*269 FILLER_0_0_27
*270 FILLER_0_0_273
*271 FILLER_0_0_279
*272 FILLER_0_0_281
*273 FILLER_0_0_29
*274 FILLER_0_0_293
*275 FILLER_0_0_305
*276 FILLER_0_0_309
*277 FILLER_0_0_321
*278 FILLER_0_0_333
*279 FILLER_0_0_337
*280 FILLER_0_0_349
*281 FILLER_0_0_361
*282 FILLER_0_0_365
*283 FILLER_0_0_377
*284 FILLER_0_0_389
*285 FILLER_0_0_393
*286 FILLER_0_0_405
*287 FILLER_0_0_41
*288 FILLER_0_0_413
*289 FILLER_0_0_419
*290 FILLER_0_0_421
*291 FILLER_0_0_433
*292 FILLER_0_0_445
*293 FILLER_0_0_449
*294 FILLER_0_0_461
*295 FILLER_0_0_473
*296 FILLER_0_0_477
*297 FILLER_0_0_489
*298 FILLER_0_0_501
*299 FILLER_0_0_505
*300 FILLER_0_0_517
*301 FILLER_0_0_529
*302 FILLER_0_0_53
*303 FILLER_0_0_533
*304 FILLER_0_0_545
*305 FILLER_0_0_553
*306 FILLER_0_0_559
*307 FILLER_0_0_561
*308 FILLER_0_0_57
*309 FILLER_0_0_573
*310 FILLER_0_0_585
*311 FILLER_0_0_589
*312 FILLER_0_0_601
*313 FILLER_0_0_613
*314 FILLER_0_0_617
*315 FILLER_0_0_629
*316 FILLER_0_0_641
*317 FILLER_0_0_645
*318 FILLER_0_0_657
*319 FILLER_0_0_669
*320 FILLER_0_0_673
*321 FILLER_0_0_685
*322 FILLER_0_0_69
*323 FILLER_0_0_693
*324 FILLER_0_0_701
*325 FILLER_0_0_713
*326 FILLER_0_0_725
*327 FILLER_0_0_729
*328 FILLER_0_0_741
*329 FILLER_0_0_753
*330 FILLER_0_0_757
*331 FILLER_0_0_769
*332 FILLER_0_0_781
*333 FILLER_0_0_785
*334 FILLER_0_0_797
*335 FILLER_0_0_809
*336 FILLER_0_0_81
*337 FILLER_0_0_813
*338 FILLER_0_0_825
*339 FILLER_0_0_833
*340 FILLER_0_0_841
*341 FILLER_0_0_85
*342 FILLER_0_0_853
*343 FILLER_0_0_865
*344 FILLER_0_0_869
*345 FILLER_0_0_881
*346 FILLER_0_0_893
*347 FILLER_0_0_897
*348 FILLER_0_0_9
*349 FILLER_0_0_909
*350 FILLER_0_0_921
*351 FILLER_0_0_925
*352 FILLER_0_0_937
*353 FILLER_0_0_949
*354 FILLER_0_0_953
*355 FILLER_0_0_965
*356 FILLER_0_0_97
*357 FILLER_0_0_977
*358 FILLER_0_0_987
*359 FILLER_0_0_999
*360 FILLER_0_100_1005
*361 FILLER_0_100_1017
*362 FILLER_0_100_1029
*363 FILLER_0_100_1035
*364 FILLER_0_100_1037
*365 FILLER_0_100_1049
*366 FILLER_0_100_1057
*367 FILLER_0_100_109
*368 FILLER_0_100_121
*369 FILLER_0_100_133
*370 FILLER_0_100_139
*371 FILLER_0_100_141
*372 FILLER_0_100_15
*373 FILLER_0_100_153
*374 FILLER_0_100_165
*375 FILLER_0_100_177
*376 FILLER_0_100_189
*377 FILLER_0_100_195
*378 FILLER_0_100_197
*379 FILLER_0_100_209
*380 FILLER_0_100_221
*381 FILLER_0_100_233
*382 FILLER_0_100_245
*383 FILLER_0_100_251
*384 FILLER_0_100_253
*385 FILLER_0_100_265
*386 FILLER_0_100_27
*387 FILLER_0_100_277
*388 FILLER_0_100_289
*389 FILLER_0_100_29
*390 FILLER_0_100_3
*391 FILLER_0_100_301
*392 FILLER_0_100_307
*393 FILLER_0_100_309
*394 FILLER_0_100_321
*395 FILLER_0_100_333
*396 FILLER_0_100_345
*397 FILLER_0_100_357
*398 FILLER_0_100_363
*399 FILLER_0_100_365
*400 FILLER_0_100_377
*401 FILLER_0_100_389
*402 FILLER_0_100_401
*403 FILLER_0_100_41
*404 FILLER_0_100_413
*405 FILLER_0_100_419
*406 FILLER_0_100_421
*407 FILLER_0_100_433
*408 FILLER_0_100_445
*409 FILLER_0_100_457
*410 FILLER_0_100_469
*411 FILLER_0_100_475
*412 FILLER_0_100_477
*413 FILLER_0_100_489
*414 FILLER_0_100_501
*415 FILLER_0_100_513
*416 FILLER_0_100_525
*417 FILLER_0_100_53
*418 FILLER_0_100_531
*419 FILLER_0_100_533
*420 FILLER_0_100_545
*421 FILLER_0_100_557
*422 FILLER_0_100_569
*423 FILLER_0_100_581
*424 FILLER_0_100_587
*425 FILLER_0_100_589
*426 FILLER_0_100_601
*427 FILLER_0_100_613
*428 FILLER_0_100_625
*429 FILLER_0_100_637
*430 FILLER_0_100_643
*431 FILLER_0_100_645
*432 FILLER_0_100_65
*433 FILLER_0_100_657
*434 FILLER_0_100_669
*435 FILLER_0_100_681
*436 FILLER_0_100_693
*437 FILLER_0_100_699
*438 FILLER_0_100_701
*439 FILLER_0_100_713
*440 FILLER_0_100_725
*441 FILLER_0_100_737
*442 FILLER_0_100_749
*443 FILLER_0_100_755
*444 FILLER_0_100_757
*445 FILLER_0_100_769
*446 FILLER_0_100_77
*447 FILLER_0_100_781
*448 FILLER_0_100_793
*449 FILLER_0_100_805
*450 FILLER_0_100_811
*451 FILLER_0_100_813
*452 FILLER_0_100_825
*453 FILLER_0_100_83
*454 FILLER_0_100_837
*455 FILLER_0_100_849
*456 FILLER_0_100_85
*457 FILLER_0_100_861
*458 FILLER_0_100_867
*459 FILLER_0_100_869
*460 FILLER_0_100_881
*461 FILLER_0_100_893
*462 FILLER_0_100_905
*463 FILLER_0_100_917
*464 FILLER_0_100_923
*465 FILLER_0_100_925
*466 FILLER_0_100_937
*467 FILLER_0_100_949
*468 FILLER_0_100_961
*469 FILLER_0_100_97
*470 FILLER_0_100_973
*471 FILLER_0_100_979
*472 FILLER_0_100_981
*473 FILLER_0_100_993
*474 FILLER_0_101_1001
*475 FILLER_0_101_1007
*476 FILLER_0_101_1009
*477 FILLER_0_101_1021
*478 FILLER_0_101_1033
*479 FILLER_0_101_1045
*480 FILLER_0_101_105
*481 FILLER_0_101_1057
*482 FILLER_0_101_111
*483 FILLER_0_101_113
*484 FILLER_0_101_125
*485 FILLER_0_101_137
*486 FILLER_0_101_149
*487 FILLER_0_101_15
*488 FILLER_0_101_161
*489 FILLER_0_101_167
*490 FILLER_0_101_169
*491 FILLER_0_101_181
*492 FILLER_0_101_193
*493 FILLER_0_101_205
*494 FILLER_0_101_217
*495 FILLER_0_101_223
*496 FILLER_0_101_225
*497 FILLER_0_101_237
*498 FILLER_0_101_249
*499 FILLER_0_101_261
*500 FILLER_0_101_27
*501 FILLER_0_101_273
*502 FILLER_0_101_279
*503 FILLER_0_101_281
*504 FILLER_0_101_293
*505 FILLER_0_101_3
*506 FILLER_0_101_305
*507 FILLER_0_101_317
*508 FILLER_0_101_329
*509 FILLER_0_101_335
*510 FILLER_0_101_337
*511 FILLER_0_101_349
*512 FILLER_0_101_361
*513 FILLER_0_101_373
*514 FILLER_0_101_385
*515 FILLER_0_101_39
*516 FILLER_0_101_391
*517 FILLER_0_101_393
*518 FILLER_0_101_405
*519 FILLER_0_101_417
*520 FILLER_0_101_429
*521 FILLER_0_101_441
*522 FILLER_0_101_447
*523 FILLER_0_101_449
*524 FILLER_0_101_461
*525 FILLER_0_101_473
*526 FILLER_0_101_485
*527 FILLER_0_101_497
*528 FILLER_0_101_503
*529 FILLER_0_101_505
*530 FILLER_0_101_51
*531 FILLER_0_101_517
*532 FILLER_0_101_529
*533 FILLER_0_101_541
*534 FILLER_0_101_55
*535 FILLER_0_101_553
*536 FILLER_0_101_559
*537 FILLER_0_101_561
*538 FILLER_0_101_57
*539 FILLER_0_101_573
*540 FILLER_0_101_585
*541 FILLER_0_101_597
*542 FILLER_0_101_609
*543 FILLER_0_101_615
*544 FILLER_0_101_617
*545 FILLER_0_101_629
*546 FILLER_0_101_641
*547 FILLER_0_101_653
*548 FILLER_0_101_665
*549 FILLER_0_101_671
*550 FILLER_0_101_673
*551 FILLER_0_101_685
*552 FILLER_0_101_69
*553 FILLER_0_101_697
*554 FILLER_0_101_709
*555 FILLER_0_101_721
*556 FILLER_0_101_727
*557 FILLER_0_101_729
*558 FILLER_0_101_741
*559 FILLER_0_101_753
*560 FILLER_0_101_765
*561 FILLER_0_101_777
*562 FILLER_0_101_783
*563 FILLER_0_101_785
*564 FILLER_0_101_797
*565 FILLER_0_101_809
*566 FILLER_0_101_81
*567 FILLER_0_101_821
*568 FILLER_0_101_833
*569 FILLER_0_101_839
*570 FILLER_0_101_841
*571 FILLER_0_101_853
*572 FILLER_0_101_865
*573 FILLER_0_101_877
*574 FILLER_0_101_889
*575 FILLER_0_101_895
*576 FILLER_0_101_897
*577 FILLER_0_101_909
*578 FILLER_0_101_921
*579 FILLER_0_101_93
*580 FILLER_0_101_933
*581 FILLER_0_101_945
*582 FILLER_0_101_951
*583 FILLER_0_101_953
*584 FILLER_0_101_965
*585 FILLER_0_101_977
*586 FILLER_0_101_989
*587 FILLER_0_102_1005
*588 FILLER_0_102_1017
*589 FILLER_0_102_1029
*590 FILLER_0_102_1035
*591 FILLER_0_102_1037
*592 FILLER_0_102_1049
*593 FILLER_0_102_1057
*594 FILLER_0_102_109
*595 FILLER_0_102_121
*596 FILLER_0_102_133
*597 FILLER_0_102_139
*598 FILLER_0_102_141
*599 FILLER_0_102_15
*600 FILLER_0_102_153
*601 FILLER_0_102_165
*602 FILLER_0_102_177
*603 FILLER_0_102_189
*604 FILLER_0_102_195
*605 FILLER_0_102_197
*606 FILLER_0_102_209
*607 FILLER_0_102_221
*608 FILLER_0_102_233
*609 FILLER_0_102_245
*610 FILLER_0_102_251
*611 FILLER_0_102_253
*612 FILLER_0_102_265
*613 FILLER_0_102_27
*614 FILLER_0_102_277
*615 FILLER_0_102_289
*616 FILLER_0_102_29
*617 FILLER_0_102_3
*618 FILLER_0_102_301
*619 FILLER_0_102_307
*620 FILLER_0_102_309
*621 FILLER_0_102_321
*622 FILLER_0_102_333
*623 FILLER_0_102_345
*624 FILLER_0_102_357
*625 FILLER_0_102_363
*626 FILLER_0_102_365
*627 FILLER_0_102_377
*628 FILLER_0_102_389
*629 FILLER_0_102_401
*630 FILLER_0_102_41
*631 FILLER_0_102_413
*632 FILLER_0_102_419
*633 FILLER_0_102_421
*634 FILLER_0_102_433
*635 FILLER_0_102_445
*636 FILLER_0_102_457
*637 FILLER_0_102_469
*638 FILLER_0_102_475
*639 FILLER_0_102_477
*640 FILLER_0_102_489
*641 FILLER_0_102_501
*642 FILLER_0_102_513
*643 FILLER_0_102_525
*644 FILLER_0_102_53
*645 FILLER_0_102_531
*646 FILLER_0_102_533
*647 FILLER_0_102_545
*648 FILLER_0_102_557
*649 FILLER_0_102_569
*650 FILLER_0_102_581
*651 FILLER_0_102_587
*652 FILLER_0_102_589
*653 FILLER_0_102_601
*654 FILLER_0_102_613
*655 FILLER_0_102_625
*656 FILLER_0_102_637
*657 FILLER_0_102_643
*658 FILLER_0_102_645
*659 FILLER_0_102_65
*660 FILLER_0_102_657
*661 FILLER_0_102_669
*662 FILLER_0_102_681
*663 FILLER_0_102_693
*664 FILLER_0_102_699
*665 FILLER_0_102_701
*666 FILLER_0_102_713
*667 FILLER_0_102_725
*668 FILLER_0_102_737
*669 FILLER_0_102_749
*670 FILLER_0_102_755
*671 FILLER_0_102_757
*672 FILLER_0_102_769
*673 FILLER_0_102_77
*674 FILLER_0_102_781
*675 FILLER_0_102_793
*676 FILLER_0_102_805
*677 FILLER_0_102_811
*678 FILLER_0_102_813
*679 FILLER_0_102_825
*680 FILLER_0_102_83
*681 FILLER_0_102_837
*682 FILLER_0_102_849
*683 FILLER_0_102_85
*684 FILLER_0_102_861
*685 FILLER_0_102_867
*686 FILLER_0_102_869
*687 FILLER_0_102_881
*688 FILLER_0_102_893
*689 FILLER_0_102_905
*690 FILLER_0_102_917
*691 FILLER_0_102_923
*692 FILLER_0_102_925
*693 FILLER_0_102_937
*694 FILLER_0_102_949
*695 FILLER_0_102_961
*696 FILLER_0_102_97
*697 FILLER_0_102_973
*698 FILLER_0_102_979
*699 FILLER_0_102_981
*700 FILLER_0_102_993
*701 FILLER_0_103_1001
*702 FILLER_0_103_1007
*703 FILLER_0_103_1009
*704 FILLER_0_103_1021
*705 FILLER_0_103_1033
*706 FILLER_0_103_1045
*707 FILLER_0_103_105
*708 FILLER_0_103_1057
*709 FILLER_0_103_111
*710 FILLER_0_103_113
*711 FILLER_0_103_125
*712 FILLER_0_103_137
*713 FILLER_0_103_149
*714 FILLER_0_103_15
*715 FILLER_0_103_161
*716 FILLER_0_103_167
*717 FILLER_0_103_169
*718 FILLER_0_103_181
*719 FILLER_0_103_193
*720 FILLER_0_103_205
*721 FILLER_0_103_217
*722 FILLER_0_103_223
*723 FILLER_0_103_225
*724 FILLER_0_103_237
*725 FILLER_0_103_249
*726 FILLER_0_103_261
*727 FILLER_0_103_27
*728 FILLER_0_103_273
*729 FILLER_0_103_279
*730 FILLER_0_103_281
*731 FILLER_0_103_293
*732 FILLER_0_103_3
*733 FILLER_0_103_305
*734 FILLER_0_103_317
*735 FILLER_0_103_329
*736 FILLER_0_103_335
*737 FILLER_0_103_337
*738 FILLER_0_103_349
*739 FILLER_0_103_361
*740 FILLER_0_103_373
*741 FILLER_0_103_385
*742 FILLER_0_103_39
*743 FILLER_0_103_391
*744 FILLER_0_103_393
*745 FILLER_0_103_405
*746 FILLER_0_103_417
*747 FILLER_0_103_429
*748 FILLER_0_103_441
*749 FILLER_0_103_447
*750 FILLER_0_103_449
*751 FILLER_0_103_461
*752 FILLER_0_103_473
*753 FILLER_0_103_485
*754 FILLER_0_103_497
*755 FILLER_0_103_503
*756 FILLER_0_103_505
*757 FILLER_0_103_51
*758 FILLER_0_103_517
*759 FILLER_0_103_529
*760 FILLER_0_103_541
*761 FILLER_0_103_55
*762 FILLER_0_103_553
*763 FILLER_0_103_559
*764 FILLER_0_103_561
*765 FILLER_0_103_57
*766 FILLER_0_103_573
*767 FILLER_0_103_585
*768 FILLER_0_103_597
*769 FILLER_0_103_609
*770 FILLER_0_103_615
*771 FILLER_0_103_617
*772 FILLER_0_103_629
*773 FILLER_0_103_641
*774 FILLER_0_103_653
*775 FILLER_0_103_665
*776 FILLER_0_103_671
*777 FILLER_0_103_673
*778 FILLER_0_103_685
*779 FILLER_0_103_69
*780 FILLER_0_103_697
*781 FILLER_0_103_709
*782 FILLER_0_103_721
*783 FILLER_0_103_727
*784 FILLER_0_103_729
*785 FILLER_0_103_741
*786 FILLER_0_103_753
*787 FILLER_0_103_765
*788 FILLER_0_103_777
*789 FILLER_0_103_783
*790 FILLER_0_103_785
*791 FILLER_0_103_797
*792 FILLER_0_103_809
*793 FILLER_0_103_81
*794 FILLER_0_103_821
*795 FILLER_0_103_833
*796 FILLER_0_103_839
*797 FILLER_0_103_841
*798 FILLER_0_103_853
*799 FILLER_0_103_865
*800 FILLER_0_103_877
*801 FILLER_0_103_889
*802 FILLER_0_103_895
*803 FILLER_0_103_897
*804 FILLER_0_103_909
*805 FILLER_0_103_921
*806 FILLER_0_103_93
*807 FILLER_0_103_933
*808 FILLER_0_103_945
*809 FILLER_0_103_951
*810 FILLER_0_103_953
*811 FILLER_0_103_965
*812 FILLER_0_103_977
*813 FILLER_0_103_989
*814 FILLER_0_104_1005
*815 FILLER_0_104_1017
*816 FILLER_0_104_1029
*817 FILLER_0_104_1035
*818 FILLER_0_104_1037
*819 FILLER_0_104_1049
*820 FILLER_0_104_109
*821 FILLER_0_104_121
*822 FILLER_0_104_133
*823 FILLER_0_104_139
*824 FILLER_0_104_141
*825 FILLER_0_104_15
*826 FILLER_0_104_153
*827 FILLER_0_104_165
*828 FILLER_0_104_177
*829 FILLER_0_104_189
*830 FILLER_0_104_195
*831 FILLER_0_104_197
*832 FILLER_0_104_209
*833 FILLER_0_104_221
*834 FILLER_0_104_233
*835 FILLER_0_104_245
*836 FILLER_0_104_251
*837 FILLER_0_104_253
*838 FILLER_0_104_265
*839 FILLER_0_104_27
*840 FILLER_0_104_277
*841 FILLER_0_104_289
*842 FILLER_0_104_29
*843 FILLER_0_104_3
*844 FILLER_0_104_301
*845 FILLER_0_104_307
*846 FILLER_0_104_309
*847 FILLER_0_104_321
*848 FILLER_0_104_333
*849 FILLER_0_104_345
*850 FILLER_0_104_357
*851 FILLER_0_104_363
*852 FILLER_0_104_365
*853 FILLER_0_104_377
*854 FILLER_0_104_389
*855 FILLER_0_104_401
*856 FILLER_0_104_41
*857 FILLER_0_104_413
*858 FILLER_0_104_419
*859 FILLER_0_104_421
*860 FILLER_0_104_433
*861 FILLER_0_104_445
*862 FILLER_0_104_457
*863 FILLER_0_104_469
*864 FILLER_0_104_475
*865 FILLER_0_104_477
*866 FILLER_0_104_489
*867 FILLER_0_104_501
*868 FILLER_0_104_513
*869 FILLER_0_104_525
*870 FILLER_0_104_53
*871 FILLER_0_104_531
*872 FILLER_0_104_533
*873 FILLER_0_104_545
*874 FILLER_0_104_557
*875 FILLER_0_104_569
*876 FILLER_0_104_581
*877 FILLER_0_104_587
*878 FILLER_0_104_589
*879 FILLER_0_104_601
*880 FILLER_0_104_613
*881 FILLER_0_104_625
*882 FILLER_0_104_637
*883 FILLER_0_104_643
*884 FILLER_0_104_645
*885 FILLER_0_104_65
*886 FILLER_0_104_657
*887 FILLER_0_104_669
*888 FILLER_0_104_681
*889 FILLER_0_104_693
*890 FILLER_0_104_699
*891 FILLER_0_104_701
*892 FILLER_0_104_713
*893 FILLER_0_104_725
*894 FILLER_0_104_737
*895 FILLER_0_104_749
*896 FILLER_0_104_755
*897 FILLER_0_104_757
*898 FILLER_0_104_769
*899 FILLER_0_104_77
*900 FILLER_0_104_781
*901 FILLER_0_104_793
*902 FILLER_0_104_805
*903 FILLER_0_104_811
*904 FILLER_0_104_813
*905 FILLER_0_104_825
*906 FILLER_0_104_83
*907 FILLER_0_104_837
*908 FILLER_0_104_849
*909 FILLER_0_104_85
*910 FILLER_0_104_861
*911 FILLER_0_104_867
*912 FILLER_0_104_869
*913 FILLER_0_104_881
*914 FILLER_0_104_893
*915 FILLER_0_104_905
*916 FILLER_0_104_917
*917 FILLER_0_104_923
*918 FILLER_0_104_925
*919 FILLER_0_104_937
*920 FILLER_0_104_949
*921 FILLER_0_104_961
*922 FILLER_0_104_97
*923 FILLER_0_104_973
*924 FILLER_0_104_979
*925 FILLER_0_104_981
*926 FILLER_0_104_993
*927 FILLER_0_105_1001
*928 FILLER_0_105_1007
*929 FILLER_0_105_1009
*930 FILLER_0_105_1021
*931 FILLER_0_105_1033
*932 FILLER_0_105_1045
*933 FILLER_0_105_105
*934 FILLER_0_105_1057
*935 FILLER_0_105_111
*936 FILLER_0_105_113
*937 FILLER_0_105_125
*938 FILLER_0_105_137
*939 FILLER_0_105_149
*940 FILLER_0_105_15
*941 FILLER_0_105_161
*942 FILLER_0_105_167
*943 FILLER_0_105_169
*944 FILLER_0_105_181
*945 FILLER_0_105_193
*946 FILLER_0_105_205
*947 FILLER_0_105_217
*948 FILLER_0_105_223
*949 FILLER_0_105_225
*950 FILLER_0_105_237
*951 FILLER_0_105_249
*952 FILLER_0_105_261
*953 FILLER_0_105_27
*954 FILLER_0_105_273
*955 FILLER_0_105_279
*956 FILLER_0_105_281
*957 FILLER_0_105_293
*958 FILLER_0_105_3
*959 FILLER_0_105_305
*960 FILLER_0_105_317
*961 FILLER_0_105_329
*962 FILLER_0_105_335
*963 FILLER_0_105_337
*964 FILLER_0_105_349
*965 FILLER_0_105_361
*966 FILLER_0_105_373
*967 FILLER_0_105_385
*968 FILLER_0_105_39
*969 FILLER_0_105_391
*970 FILLER_0_105_393
*971 FILLER_0_105_405
*972 FILLER_0_105_417
*973 FILLER_0_105_429
*974 FILLER_0_105_441
*975 FILLER_0_105_447
*976 FILLER_0_105_449
*977 FILLER_0_105_461
*978 FILLER_0_105_473
*979 FILLER_0_105_485
*980 FILLER_0_105_497
*981 FILLER_0_105_503
*982 FILLER_0_105_505
*983 FILLER_0_105_51
*984 FILLER_0_105_517
*985 FILLER_0_105_529
*986 FILLER_0_105_541
*987 FILLER_0_105_55
*988 FILLER_0_105_553
*989 FILLER_0_105_559
*990 FILLER_0_105_561
*991 FILLER_0_105_57
*992 FILLER_0_105_573
*993 FILLER_0_105_585
*994 FILLER_0_105_597
*995 FILLER_0_105_609
*996 FILLER_0_105_615
*997 FILLER_0_105_617
*998 FILLER_0_105_629
*999 FILLER_0_105_641
*1000 FILLER_0_105_653
*1001 FILLER_0_105_665
*1002 FILLER_0_105_671
*1003 FILLER_0_105_673
*1004 FILLER_0_105_685
*1005 FILLER_0_105_69
*1006 FILLER_0_105_697
*1007 FILLER_0_105_709
*1008 FILLER_0_105_721
*1009 FILLER_0_105_727
*1010 FILLER_0_105_729
*1011 FILLER_0_105_741
*1012 FILLER_0_105_753
*1013 FILLER_0_105_765
*1014 FILLER_0_105_777
*1015 FILLER_0_105_783
*1016 FILLER_0_105_785
*1017 FILLER_0_105_797
*1018 FILLER_0_105_809
*1019 FILLER_0_105_81
*1020 FILLER_0_105_821
*1021 FILLER_0_105_833
*1022 FILLER_0_105_839
*1023 FILLER_0_105_841
*1024 FILLER_0_105_853
*1025 FILLER_0_105_865
*1026 FILLER_0_105_877
*1027 FILLER_0_105_889
*1028 FILLER_0_105_895
*1029 FILLER_0_105_897
*1030 FILLER_0_105_909
*1031 FILLER_0_105_921
*1032 FILLER_0_105_93
*1033 FILLER_0_105_933
*1034 FILLER_0_105_945
*1035 FILLER_0_105_951
*1036 FILLER_0_105_953
*1037 FILLER_0_105_965
*1038 FILLER_0_105_977
*1039 FILLER_0_105_989
*1040 FILLER_0_106_1005
*1041 FILLER_0_106_1017
*1042 FILLER_0_106_1029
*1043 FILLER_0_106_1035
*1044 FILLER_0_106_1037
*1045 FILLER_0_106_1049
*1046 FILLER_0_106_1057
*1047 FILLER_0_106_109
*1048 FILLER_0_106_121
*1049 FILLER_0_106_133
*1050 FILLER_0_106_139
*1051 FILLER_0_106_141
*1052 FILLER_0_106_15
*1053 FILLER_0_106_153
*1054 FILLER_0_106_165
*1055 FILLER_0_106_177
*1056 FILLER_0_106_189
*1057 FILLER_0_106_195
*1058 FILLER_0_106_197
*1059 FILLER_0_106_209
*1060 FILLER_0_106_221
*1061 FILLER_0_106_233
*1062 FILLER_0_106_245
*1063 FILLER_0_106_251
*1064 FILLER_0_106_253
*1065 FILLER_0_106_265
*1066 FILLER_0_106_27
*1067 FILLER_0_106_277
*1068 FILLER_0_106_289
*1069 FILLER_0_106_29
*1070 FILLER_0_106_3
*1071 FILLER_0_106_301
*1072 FILLER_0_106_307
*1073 FILLER_0_106_309
*1074 FILLER_0_106_321
*1075 FILLER_0_106_333
*1076 FILLER_0_106_345
*1077 FILLER_0_106_357
*1078 FILLER_0_106_363
*1079 FILLER_0_106_365
*1080 FILLER_0_106_377
*1081 FILLER_0_106_389
*1082 FILLER_0_106_401
*1083 FILLER_0_106_41
*1084 FILLER_0_106_413
*1085 FILLER_0_106_419
*1086 FILLER_0_106_421
*1087 FILLER_0_106_433
*1088 FILLER_0_106_445
*1089 FILLER_0_106_457
*1090 FILLER_0_106_469
*1091 FILLER_0_106_475
*1092 FILLER_0_106_477
*1093 FILLER_0_106_489
*1094 FILLER_0_106_501
*1095 FILLER_0_106_513
*1096 FILLER_0_106_525
*1097 FILLER_0_106_53
*1098 FILLER_0_106_531
*1099 FILLER_0_106_533
*1100 FILLER_0_106_545
*1101 FILLER_0_106_557
*1102 FILLER_0_106_569
*1103 FILLER_0_106_581
*1104 FILLER_0_106_587
*1105 FILLER_0_106_589
*1106 FILLER_0_106_601
*1107 FILLER_0_106_613
*1108 FILLER_0_106_625
*1109 FILLER_0_106_637
*1110 FILLER_0_106_643
*1111 FILLER_0_106_645
*1112 FILLER_0_106_65
*1113 FILLER_0_106_657
*1114 FILLER_0_106_669
*1115 FILLER_0_106_681
*1116 FILLER_0_106_693
*1117 FILLER_0_106_699
*1118 FILLER_0_106_701
*1119 FILLER_0_106_713
*1120 FILLER_0_106_725
*1121 FILLER_0_106_737
*1122 FILLER_0_106_749
*1123 FILLER_0_106_755
*1124 FILLER_0_106_757
*1125 FILLER_0_106_769
*1126 FILLER_0_106_77
*1127 FILLER_0_106_781
*1128 FILLER_0_106_793
*1129 FILLER_0_106_805
*1130 FILLER_0_106_811
*1131 FILLER_0_106_813
*1132 FILLER_0_106_825
*1133 FILLER_0_106_83
*1134 FILLER_0_106_837
*1135 FILLER_0_106_849
*1136 FILLER_0_106_85
*1137 FILLER_0_106_861
*1138 FILLER_0_106_867
*1139 FILLER_0_106_869
*1140 FILLER_0_106_881
*1141 FILLER_0_106_893
*1142 FILLER_0_106_905
*1143 FILLER_0_106_917
*1144 FILLER_0_106_923
*1145 FILLER_0_106_925
*1146 FILLER_0_106_937
*1147 FILLER_0_106_949
*1148 FILLER_0_106_961
*1149 FILLER_0_106_97
*1150 FILLER_0_106_973
*1151 FILLER_0_106_979
*1152 FILLER_0_106_981
*1153 FILLER_0_106_993
*1154 FILLER_0_107_1001
*1155 FILLER_0_107_1007
*1156 FILLER_0_107_1009
*1157 FILLER_0_107_1021
*1158 FILLER_0_107_1033
*1159 FILLER_0_107_1045
*1160 FILLER_0_107_105
*1161 FILLER_0_107_1057
*1162 FILLER_0_107_111
*1163 FILLER_0_107_113
*1164 FILLER_0_107_125
*1165 FILLER_0_107_137
*1166 FILLER_0_107_149
*1167 FILLER_0_107_15
*1168 FILLER_0_107_161
*1169 FILLER_0_107_167
*1170 FILLER_0_107_169
*1171 FILLER_0_107_181
*1172 FILLER_0_107_193
*1173 FILLER_0_107_205
*1174 FILLER_0_107_217
*1175 FILLER_0_107_223
*1176 FILLER_0_107_225
*1177 FILLER_0_107_237
*1178 FILLER_0_107_249
*1179 FILLER_0_107_261
*1180 FILLER_0_107_27
*1181 FILLER_0_107_273
*1182 FILLER_0_107_279
*1183 FILLER_0_107_281
*1184 FILLER_0_107_293
*1185 FILLER_0_107_3
*1186 FILLER_0_107_305
*1187 FILLER_0_107_317
*1188 FILLER_0_107_329
*1189 FILLER_0_107_335
*1190 FILLER_0_107_337
*1191 FILLER_0_107_349
*1192 FILLER_0_107_361
*1193 FILLER_0_107_373
*1194 FILLER_0_107_385
*1195 FILLER_0_107_39
*1196 FILLER_0_107_391
*1197 FILLER_0_107_393
*1198 FILLER_0_107_405
*1199 FILLER_0_107_417
*1200 FILLER_0_107_429
*1201 FILLER_0_107_441
*1202 FILLER_0_107_447
*1203 FILLER_0_107_449
*1204 FILLER_0_107_461
*1205 FILLER_0_107_473
*1206 FILLER_0_107_485
*1207 FILLER_0_107_497
*1208 FILLER_0_107_503
*1209 FILLER_0_107_505
*1210 FILLER_0_107_51
*1211 FILLER_0_107_517
*1212 FILLER_0_107_529
*1213 FILLER_0_107_541
*1214 FILLER_0_107_55
*1215 FILLER_0_107_553
*1216 FILLER_0_107_559
*1217 FILLER_0_107_561
*1218 FILLER_0_107_57
*1219 FILLER_0_107_573
*1220 FILLER_0_107_585
*1221 FILLER_0_107_597
*1222 FILLER_0_107_609
*1223 FILLER_0_107_615
*1224 FILLER_0_107_617
*1225 FILLER_0_107_629
*1226 FILLER_0_107_641
*1227 FILLER_0_107_653
*1228 FILLER_0_107_665
*1229 FILLER_0_107_671
*1230 FILLER_0_107_673
*1231 FILLER_0_107_685
*1232 FILLER_0_107_69
*1233 FILLER_0_107_697
*1234 FILLER_0_107_709
*1235 FILLER_0_107_721
*1236 FILLER_0_107_727
*1237 FILLER_0_107_729
*1238 FILLER_0_107_741
*1239 FILLER_0_107_753
*1240 FILLER_0_107_765
*1241 FILLER_0_107_777
*1242 FILLER_0_107_783
*1243 FILLER_0_107_785
*1244 FILLER_0_107_797
*1245 FILLER_0_107_809
*1246 FILLER_0_107_81
*1247 FILLER_0_107_821
*1248 FILLER_0_107_833
*1249 FILLER_0_107_839
*1250 FILLER_0_107_841
*1251 FILLER_0_107_853
*1252 FILLER_0_107_865
*1253 FILLER_0_107_877
*1254 FILLER_0_107_889
*1255 FILLER_0_107_895
*1256 FILLER_0_107_897
*1257 FILLER_0_107_909
*1258 FILLER_0_107_921
*1259 FILLER_0_107_93
*1260 FILLER_0_107_933
*1261 FILLER_0_107_945
*1262 FILLER_0_107_951
*1263 FILLER_0_107_953
*1264 FILLER_0_107_965
*1265 FILLER_0_107_977
*1266 FILLER_0_107_989
*1267 FILLER_0_108_1005
*1268 FILLER_0_108_1017
*1269 FILLER_0_108_1029
*1270 FILLER_0_108_1035
*1271 FILLER_0_108_1037
*1272 FILLER_0_108_1049
*1273 FILLER_0_108_1057
*1274 FILLER_0_108_109
*1275 FILLER_0_108_121
*1276 FILLER_0_108_133
*1277 FILLER_0_108_139
*1278 FILLER_0_108_141
*1279 FILLER_0_108_15
*1280 FILLER_0_108_153
*1281 FILLER_0_108_165
*1282 FILLER_0_108_177
*1283 FILLER_0_108_189
*1284 FILLER_0_108_195
*1285 FILLER_0_108_197
*1286 FILLER_0_108_209
*1287 FILLER_0_108_221
*1288 FILLER_0_108_233
*1289 FILLER_0_108_245
*1290 FILLER_0_108_251
*1291 FILLER_0_108_253
*1292 FILLER_0_108_265
*1293 FILLER_0_108_27
*1294 FILLER_0_108_277
*1295 FILLER_0_108_289
*1296 FILLER_0_108_29
*1297 FILLER_0_108_3
*1298 FILLER_0_108_301
*1299 FILLER_0_108_307
*1300 FILLER_0_108_309
*1301 FILLER_0_108_321
*1302 FILLER_0_108_333
*1303 FILLER_0_108_345
*1304 FILLER_0_108_357
*1305 FILLER_0_108_363
*1306 FILLER_0_108_365
*1307 FILLER_0_108_377
*1308 FILLER_0_108_389
*1309 FILLER_0_108_401
*1310 FILLER_0_108_41
*1311 FILLER_0_108_413
*1312 FILLER_0_108_419
*1313 FILLER_0_108_421
*1314 FILLER_0_108_433
*1315 FILLER_0_108_445
*1316 FILLER_0_108_457
*1317 FILLER_0_108_469
*1318 FILLER_0_108_475
*1319 FILLER_0_108_477
*1320 FILLER_0_108_489
*1321 FILLER_0_108_501
*1322 FILLER_0_108_513
*1323 FILLER_0_108_525
*1324 FILLER_0_108_53
*1325 FILLER_0_108_531
*1326 FILLER_0_108_533
*1327 FILLER_0_108_545
*1328 FILLER_0_108_557
*1329 FILLER_0_108_569
*1330 FILLER_0_108_581
*1331 FILLER_0_108_587
*1332 FILLER_0_108_589
*1333 FILLER_0_108_601
*1334 FILLER_0_108_613
*1335 FILLER_0_108_625
*1336 FILLER_0_108_637
*1337 FILLER_0_108_643
*1338 FILLER_0_108_645
*1339 FILLER_0_108_65
*1340 FILLER_0_108_657
*1341 FILLER_0_108_669
*1342 FILLER_0_108_681
*1343 FILLER_0_108_693
*1344 FILLER_0_108_699
*1345 FILLER_0_108_701
*1346 FILLER_0_108_713
*1347 FILLER_0_108_725
*1348 FILLER_0_108_737
*1349 FILLER_0_108_749
*1350 FILLER_0_108_755
*1351 FILLER_0_108_757
*1352 FILLER_0_108_769
*1353 FILLER_0_108_77
*1354 FILLER_0_108_781
*1355 FILLER_0_108_793
*1356 FILLER_0_108_805
*1357 FILLER_0_108_811
*1358 FILLER_0_108_813
*1359 FILLER_0_108_825
*1360 FILLER_0_108_83
*1361 FILLER_0_108_837
*1362 FILLER_0_108_849
*1363 FILLER_0_108_85
*1364 FILLER_0_108_861
*1365 FILLER_0_108_867
*1366 FILLER_0_108_869
*1367 FILLER_0_108_881
*1368 FILLER_0_108_893
*1369 FILLER_0_108_905
*1370 FILLER_0_108_917
*1371 FILLER_0_108_923
*1372 FILLER_0_108_925
*1373 FILLER_0_108_937
*1374 FILLER_0_108_949
*1375 FILLER_0_108_961
*1376 FILLER_0_108_97
*1377 FILLER_0_108_973
*1378 FILLER_0_108_979
*1379 FILLER_0_108_981
*1380 FILLER_0_108_993
*1381 FILLER_0_109_1001
*1382 FILLER_0_109_1007
*1383 FILLER_0_109_1009
*1384 FILLER_0_109_1021
*1385 FILLER_0_109_1033
*1386 FILLER_0_109_1045
*1387 FILLER_0_109_105
*1388 FILLER_0_109_1057
*1389 FILLER_0_109_111
*1390 FILLER_0_109_113
*1391 FILLER_0_109_125
*1392 FILLER_0_109_137
*1393 FILLER_0_109_149
*1394 FILLER_0_109_15
*1395 FILLER_0_109_161
*1396 FILLER_0_109_167
*1397 FILLER_0_109_169
*1398 FILLER_0_109_181
*1399 FILLER_0_109_193
*1400 FILLER_0_109_205
*1401 FILLER_0_109_217
*1402 FILLER_0_109_223
*1403 FILLER_0_109_225
*1404 FILLER_0_109_237
*1405 FILLER_0_109_249
*1406 FILLER_0_109_261
*1407 FILLER_0_109_27
*1408 FILLER_0_109_273
*1409 FILLER_0_109_279
*1410 FILLER_0_109_281
*1411 FILLER_0_109_293
*1412 FILLER_0_109_3
*1413 FILLER_0_109_305
*1414 FILLER_0_109_317
*1415 FILLER_0_109_329
*1416 FILLER_0_109_335
*1417 FILLER_0_109_337
*1418 FILLER_0_109_349
*1419 FILLER_0_109_361
*1420 FILLER_0_109_373
*1421 FILLER_0_109_385
*1422 FILLER_0_109_39
*1423 FILLER_0_109_391
*1424 FILLER_0_109_393
*1425 FILLER_0_109_405
*1426 FILLER_0_109_417
*1427 FILLER_0_109_429
*1428 FILLER_0_109_441
*1429 FILLER_0_109_447
*1430 FILLER_0_109_449
*1431 FILLER_0_109_461
*1432 FILLER_0_109_473
*1433 FILLER_0_109_485
*1434 FILLER_0_109_497
*1435 FILLER_0_109_503
*1436 FILLER_0_109_505
*1437 FILLER_0_109_51
*1438 FILLER_0_109_517
*1439 FILLER_0_109_529
*1440 FILLER_0_109_541
*1441 FILLER_0_109_55
*1442 FILLER_0_109_553
*1443 FILLER_0_109_559
*1444 FILLER_0_109_561
*1445 FILLER_0_109_57
*1446 FILLER_0_109_573
*1447 FILLER_0_109_585
*1448 FILLER_0_109_597
*1449 FILLER_0_109_609
*1450 FILLER_0_109_615
*1451 FILLER_0_109_617
*1452 FILLER_0_109_629
*1453 FILLER_0_109_641
*1454 FILLER_0_109_653
*1455 FILLER_0_109_665
*1456 FILLER_0_109_671
*1457 FILLER_0_109_673
*1458 FILLER_0_109_685
*1459 FILLER_0_109_69
*1460 FILLER_0_109_697
*1461 FILLER_0_109_709
*1462 FILLER_0_109_721
*1463 FILLER_0_109_727
*1464 FILLER_0_109_729
*1465 FILLER_0_109_741
*1466 FILLER_0_109_753
*1467 FILLER_0_109_765